Circuit: * Testbench for TSMC180nm

Ignoring BSIM parameter XL
Ignoring BSIM parameter XW
Warning: Pd = 0 is less than W.
Warning: Ps = 0 is less than W.

Date: Tue Jan 12 15:51:02 2021
Total elapsed time: 0.096 seconds.

tnom = 27
temp = 27
method = trap
totiter = 3404
traniter = 0
tranpoints = 0
accept = 0
rejected = 0
matrix size = 4
fillins = 0
solver = Normal
Matrix Compiler1: 118 bytes object code size  0.1/0.1/[0.0]
Matrix Compiler2: off  [0.0]/0.1/0.0

