Circuit: * chargeric.sp

Direct Newton iteration for .op point succeeded.

Date: Mon Jan 11 23:44:29 2021
Total elapsed time: 0.091 seconds.

tnom = 27
temp = 27
method = modified trap
totiter = 2177
traniter = 2135
tranpoints = 1068
accept = 1063
rejected = 5
matrix size = 9
fillins = 1
solver = Normal
Matrix Compiler1: 404 bytes object code size  0.1/0.1/[0.1]
Matrix Compiler2: off  [0.1]/0.1/0.1

