Circuit: * Task 1

Ignoring empty pin current: Ix(op1:plus)
Ignoring empty pin current: Ix(op1:minus)
.step rf=500
.step rf=1500
.step rf=2500
.step rf=3500
.step rf=4500
.step rf=5500
.step rf=6500
.step rf=7500
.step rf=8500
.step rf=9000

Date: Sun Jan 24 13:00:15 2021
Total elapsed time: 0.054 seconds.

tnom = 27
temp = 27
method = trap
totiter = 0
traniter = 0
tranpoints = 0
accept = 0
rejected = 0
matrix size = 6
fillins = 3
solver = Normal

