Circuit: * Task 1

WARNING: Less than two connections to node IN.  This node is used by VIN.
.OP point found by inspection.

Date: Sat Jan 23 11:15:46 2021
Total elapsed time: 0.018 seconds.

tnom = 27
temp = 27
method = modified trap
totiter = 2082
traniter = 2082
tranpoints = 1042
accept = 1042
rejected = 0
matrix size = 2
fillins = 0
solver = Normal
Matrix Compiler1: 18 bytes object code size  0.0/0.0/[0.0]
Matrix Compiler2: off  [0.0]/0.0/0.0

