Circuit: * Task 1

Direct Newton iteration for .op point succeeded.
Ignoring empty pin current: Ix(op1:plus)
Ignoring empty pin current: Ix(op1:minus)

Date: Sat Jan 23 16:03:13 2021
Total elapsed time: 0.132 seconds.

tnom = 27
temp = 27
method = trap
totiter = 3
traniter = 0
tranpoints = 0
accept = 0
rejected = 0
matrix size = 6
fillins = 0
solver = Normal
Matrix Compiler1: 200 bytes object code size
Matrix Compiler2: 388 bytes object code size
