Circuit: * Mos I-V Characteristics

Error on line 12 : .post
	 Unknown control card
Instance "ms1": Length shorter than recommended for a level 2 MOSFET.
Instance "ms1": Width narrower than recommended for a level 2 MOSFET.
.OP point found by inspection.
.step vgs=0
.step vgs=0.2
.step vgs=0.4
.step vgs=0.6
.step vgs=0.8
.step vgs=1

Date: Mon Jan 11 21:45:13 2021
Total elapsed time: 0.172 seconds.

tnom = 27
temp = 27
method = trap
totiter = 259
traniter = 0
tranpoints = 0
accept = 0
rejected = 0
matrix size = 4
fillins = 0
solver = Normal
Matrix Compiler1: 118 bytes object code size  0.2/0.1/[0.0]
Matrix Compiler2: 216 bytes object code size  0.2/0.1/[0.0]

