Circuit: * C:\Users\Mohamed\AnalogSpiceTutorials\gm-id.asc

Warning: toxe, toxp and dtox all given and toxe != toxp + dtox; dtox ignored.

Date: Mon Jan 11 21:50:29 2021
Total elapsed time: 0.126 seconds.

tnom = 27
temp = 27
method = trap
totiter = 2025
traniter = 0
tranpoints = 0
accept = 0
rejected = 0
matrix size = 20
fillins = 0
solver = Normal
Matrix Compiler1: 1.07 KB object code size  0.2/0.3/[0.1]
Matrix Compiler2: off  [0.2]/0.3/0.2

